<?xml version="1.0" encoding="UTF-8"?>

<!-- generated on 2025-05-18 15:08:31 by Eclipse SUMO netedit Version 1.22.0
-->

<routes xmlns:xsi="http://www.w3.org/2001/XMLSchema-instance" xsi:noNamespaceSchemaLocation="http://sumo.dlr.de/xsd/routes_file.xsd">
    <!-- VTypes -->
    <vType id="t_0" vClass="emergency" emissionClass="HBEFA3/PC_G_EU4" guiShape="emergency" width="1.80" height="1.50"/>
    <vType id="t_1" vClass="authority" guiShape="police"/>
    <vType id="t_2" vClass="emergency" emissionClass="HBEFA3/PC_G_EU4" guiShape="firebrigade" width="1.80" height="1.50"/>
    <!-- Vehicles, persons and containers (sorted by depart) -->
    <trip id="t_0" type="t_0" depart="0.00" from="A3A2" to="D2E2" via="A2B2 B2C2 C2D2"/>
    <trip id="t_1" depart="0.00" from="B3B2" to="B2B1"/>
    <trip id="t_10" depart="0.00" from="C0C1" to="C2C3" via="C1C2"/>
    <trip id="t_11" depart="0.00" from="B0B1" to="C2C3" via="B1C1 C1C2"/>
    <trip id="t_12" depart="0.00" from="A2B2" to="D2E2" via="B2C2 C2D2"/>
    <trip id="t_13" type="t_2" depart="0.00" from="D1D2" to="D2D3"/>
    <trip id="t_14" depart="0.00" from="C1C2" to="C2C3"/>
    <trip id="t_15" depart="0.00" from="B3B2" to="B2B1"/>
    <trip id="t_16" depart="0.00" from="C3B3" to="B2B1" via="B3B2"/>
    <trip id="t_17" depart="0.00" from="C4C3" to="C2C1" via="C3C2"/>
    <trip id="t_18" type="t_1" depart="0.00" from="D0D1" to="D2D3" via="D1D2"/>
    <trip id="t_19" type="t_1" depart="0.00" from="B0B1" to="B2B3" via="B1B2"/>
    <trip id="t_2" type="t_2" depart="0.00" from="A4A3" to="D2E2" via="A3A2 A2B2 B2C2 C2D2"/>
    <trip id="t_20" type="t_1" depart="0.00" from="A1B1" to="B2B3" via="B1B2"/>
    <trip id="t_21" type="t_0" depart="0.00" from="E3D3" to="C2C1" via="D3C3 C3C2"/>
    <trip id="t_23" depart="0.00" from="E2D2" to="B2A2" via="D2C2 C2B2"/>
    <trip id="t_24" depart="0.00" from="D1D2" to="B2A2" via="D2C2 C2B2"/>
    <trip id="t_25" depart="0.00" from="E1E2" to="A2A3" via="E2D2 D2C2 C2B2 B2A2"/>
    <trip id="t_26" depart="0.00" from="B4B3" to="D2E2" via="B3B2 B2C2 C2D2"/>
    <trip id="t_27" depart="0.00" from="D4D3" to="D2D1" via="D3D2"/>
    <trip id="t_28" depart="0.00" from="E4D4" to="D2E2" via="D4C4 C4B4 B4A4 A4A3 A3A2 A2B2 B2C2 C2D2"/>
    <trip id="t_3" type="DEFAULT_TAXITYPE" depart="0.00" from="B4B3" to="B1B0" via="B3B2 B2B1"/>
    <trip id="t_30" depart="0.00" from="E0E1" to="A2A3" via="E1E2 E2D2 D2C2 C2B2 B2A2"/>
    <trip id="t_4" depart="0.00" from="C1C2" to="C2C3"/>
    <trip id="t_5" type="t_1" depart="0.00" from="D2C2" to="B2A2" via="C2B2"/>
    <trip id="t_6" depart="0.00" from="D3C3" to="B2B1" via="C3B3 B3B2"/>
    <trip id="t_7" depart="0.00" from="C1B1" to="C2C3" via="C1C2"/>
    <trip id="t_8" depart="0.00" from="B1C1" to="C2C3" via="C1C2"/>
    <trip id="t_9" depart="0.00" from="D4C4" to="C2C1" via="C4C3 C3C2"/>
</routes>
