<?xml version="1.0" encoding="UTF-8"?>

<!-- generated on 2025-05-18 15:08:32 by Eclipse SUMO sumo Version 1.22.0
-->

<sumoConfiguration xmlns:xsi="http://www.w3.org/2001/XMLSchema-instance" xsi:noNamespaceSchemaLocation="http://sumo.dlr.de/xsd/sumoConfiguration.xsd">

    <input>
        <net-file value="teste4_sumo.net.xml"/>
        <route-files value="teste4_sumo.rou.xml"/>
    </input>

</sumoConfiguration>
